Version 4                                            
SHEET 1 1520 736                                     
WIRE 784 240 256 240                                 
WIRE 1200 240 1040 240                               
WIRE 256 304 256 240                                 
WIRE 368 304 256 304                                 
WIRE 656 304 448 304                                 
WIRE 256 432 256 304                                 
WIRE 320 432 256 432                                 
WIRE 352 432 320 432                                 
WIRE 528 432 480 432                                 
WIRE 576 432 528 432                                 
WIRE 656 432 656 304                                 
WIRE 656 432 576 432                                 
WIRE 816 432 656 432                                 
WIRE 1040 432 1040 240                               
WIRE 1040 432 896 432                                
WIRE 1040 448 1040 432                               
WIRE 320 464 320 432                                 
WIRE 528 464 528 432                                 
WIRE 656 464 656 432                                 
WIRE 1040 464 1040 448                               
WIRE 320 560 320 528                                 
WIRE 528 560 528 528                                 
WIRE 656 560 656 544                                 
WIRE 1040 560 1040 544                               
FLAG 320 560 0                                       
FLAG 528 560 0                                       
FLAG 656 560 0                                       
FLAG 1040 560 0                                      
FLAG 1200 240 XTAL_OUT                               
IOPIN 1200 240 Out                                   
FLAG 784 240 XTAL_IN                                 
IOPIN 784 240 Out                                    
FLAG 576 432 A                                       
SYMBOL cap 304 464 R0                                
WINDOW 0 24 8 Left 1                                 
WINDOW 3 24 56 Left 1                                
SYMATTR InstName C1                                  
SYMATTR Value 8pF                               
SYMBOL cap 512 464 R0                                
WINDOW 0 24 8 Left 1                                 
WINDOW 3 24 56 Left 1                                
SYMATTR InstName C2                                  
SYMATTR Value 8pF                               
SYMBOL current 656 464 R0                            
WINDOW 0 30 60 Left 1                                
WINDOW 3 30 79 Left 1                                
WINDOW 123 0 0 Left 0                                
WINDOW 39 0 0 Left 0                                 
SYMATTR InstName Kickstart                           
SYMATTR Value PULSE(0 1m 0 1n 1n 1n)                 
SYMBOL res 912 416 R90                               
WINDOW 0 0 56 VBottom 2                              
WINDOW 3 32 56 VTop 2                                
SYMATTR InstName Rs                                  
SYMATTR Value 3k                                     
SYMBOL res 464 288 R90                               
WINDOW 0 0 56 VBottom 1                              
WINDOW 3 32 56 VTop 1                                
SYMATTR InstName Rf                                  
SYMATTR Value 10e6                                   
SYMBOL ABM13W-32.000MHz-8-T 416 432 R0                         
SYMATTR InstName X1                                  
SYMBOL Inverting\ Amplifier 1040 496 R0             
SYMATTR Value V=1.66-1.66*tanh(30*(V(xtal_in)-1.66)) 
SYMATTR InstName B1                                  
TEXT 320 640 Left 2 !.tran 0 400u 1u                 
TEXT 600 640 Left 2 !.options plotwinsize=0          
TEXT 328 672 Left 2 !;tran 0 950u 949.88u 2n         
