Version 4
SHEET 1 880 680
WIRE 208 160 160 160
FLAG 288 160 0
FLAG 32 160 0
SYMBOL current 288 160 R90
WINDOW 0 -32 40 VBottom 2
WINDOW 3 32 40 VTop 2
SYMATTR InstName I1
SYMATTR Value 1m
SYMATTR Value2 AC 1
SYMBOL ABM13W-32.000MHz-8-T 96 160 R0
SYMATTR InstName X2
TEXT -8 312 Left 2 !.ac dec 100000 31MegaHz 33MegaHz